7

F 0.0 0.0 0.0
R 0.5773502691896258 0.5773502691896258 -0.5773502691896258
H 1.1547005383792517 0.0 -1.1547005383792517
D 1.7320508075688776 -0.5773502691896258 -0.5773502691896258
S 2.3094010767585034 -1.1547005383792517 -1.1547005383792517
G 1.7320508075688776 -0.5773502691896258 -0.5773502691896258
Y 2.3094010767585034 -1.1547005383792517 -1.1547005383792517
