7

N 0.0 0.0 0.0
K 0.5773502691896258 0.5773502691896258 -0.5773502691896258
G 1.1547005383792517 0.0 -1.1547005383792517
A 1.7320508075688776 -0.5773502691896258 -0.5773502691896258
I 2.3094010767585034 -1.1547005383792517 -1.1547005383792517
I 1.7320508075688776 -0.5773502691896258 -0.5773502691896258
G 2.3094010767585034 -1.1547005383792517 -1.1547005383792517
