7

D 0.0 0.0 0.0
V 0.5773502691896258 0.5773502691896258 -0.5773502691896258
G 1.1547005383792517 0.0 -1.1547005383792517
S 0.5773502691896258 0.5773502691896258 -0.5773502691896258
N 1.1547005383792517 0.0 -1.1547005383792517
K 0.5773502691896258 0.5773502691896258 -0.5773502691896258
G 0.0 0.0 0.0
