7

K 0.0 0.0 0.0
L 0.5773502691896258 0.5773502691896258 -0.5773502691896258
V 1.1547005383792517 0.0 -1.1547005383792517
F 0.5773502691896258 0.5773502691896258 -0.5773502691896258
F 1.1547005383792517 0.0 -1.1547005383792517
A 0.5773502691896258 0.5773502691896258 -0.5773502691896258
E 0.0 0.0 0.0
