7

F 0.0 0.0 0.0
A 0.5773502691896258 0.5773502691896258 -0.5773502691896258
E 1.1547005383792517 0.0 -1.1547005383792517
D 1.7320508075688776 -0.5773502691896258 -0.5773502691896258
V 1.154700538379252 0.0 -1.1547005383792517
G 0.5773502691896261 0.5773502691896258 -0.5773502691896258
S 2.220446049250313e-16 1.1547005383792517 -1.1547005383792517
