7

Y 0.0 0.0 0.0
E 0.5773502691896258 0.5773502691896258 -0.5773502691896258
V 1.1547005383792517 0.0 -1.1547005383792517
H 0.5773502691896258 0.5773502691896258 -0.5773502691896258
H 1.1547005383792517 0.0 -1.1547005383792517
Q 0.5773502691896258 0.5773502691896258 -0.5773502691896258
K 0.0 1.1547005383792517 -1.1547005383792517
