42

D 0.0 0.0 0.0
A 0.5773502691896258 0.5773502691896258 -0.5773502691896258
E 1.1547005383792517 0.5773502691896258 -1.1547005383792517
F 1.347150628109127 0.3849001794597505 -1.7320508075688776
R 1.9245008972987527 0.3849001794597505 -2.3094010767585034
H 2.0399709511366777 0.5003702332976757 -2.4248711305964283
D 2.2324210408665532 0.5003702332976757 -2.6173212203263034
A 2.2324210408665532 0.5003702332976757 -2.6173212203263034
A 2.4248711305964283 0.692820323027551 -2.6173212203263034
A 2.6173212203263034 0.692820323027551 -2.8097713100561785
A 2.6173212203263034 0.692820323027551 -2.8097713100561785
A 2.6173212203263034 0.8852704127574264 -3.0022213997860536
A 3.002221399786054 1.2701705922171769 -3.0022213997860536
A 3.002221399786054 1.2701705922171769 -3.0022213997860536
A 3.002221399786054 1.4626206819470522 -3.1946714895159287
A 3.002221399786054 1.8475208614068028 -3.1946714895159287
A 3.002221399786054 1.8475208614068028 -3.1946714895159287
A 3.002221399786054 1.8475208614068028 -3.1946714895159287
A 3.002221399786054 1.8475208614068028 -3.1946714895159287
A 3.3871215792458047 1.6550707716769275 -3.387121579245804
A 3.57957166897568 1.6550707716769275 -3.579571668975679
A 3.57957166897568 1.8475208614068028 -3.387121579245804
A 3.9644718484354304 1.6550707716769275 -3.579571668975679
A 4.349372027895181 1.6550707716769275 -3.9644718484354295
A 4.541822117625056 1.6550707716769275 -4.156921938165305
A 4.541822117625056 2.039970951136678 -4.156921938165305
A 4.734272207354931 1.6550707716769275 -4.73427220735493
A 4.734272207354931 1.8475208614068028 -4.9267222970848055
A 4.734272207354931 1.8475208614068028 -4.9267222970848055
A 4.926722297084806 2.039970951136678 -4.9267222970848055
A 5.1191723868146815 2.039970951136678 -5.119172386814681
A 5.3116224765445565 2.2324210408665532 -5.119172386814681
A 5.696522656004307 2.039970951136678 -5.696522656004307
A 6.081422835464057 1.8475208614068028 -5.888972745734182
A 6.273872925193932 1.8475208614068028 -6.081422835464057
A 6.081422835464057 1.6550707716769275 -6.466323014923807
A 6.273872925193932 1.4626206819470522 -6.851223194383557
A 6.851223194383558 1.1162105204332766 -6.735753140545632
A 6.851223194383558 0.8275353858384638 -6.447078005950819
A 7.043673284113433 0.6350852961085884 -6.639528095680694
A 7.043673284113433 0.057735026918962484 -7.21687836487032
A 7.6210235533030595 -0.5196152422706632 -7.794228634059946
